Version 4
SHEET 1 1220 724
WIRE 1040 48 864 48
WIRE 1200 48 1040 48
WIRE 160 64 -64 64
WIRE 288 64 160 64
WIRE 416 64 288 64
WIRE 432 64 416 64
WIRE 576 64 528 64
WIRE 640 64 576 64
WIRE 752 64 640 64
WIRE 800 64 752 64
WIRE 288 96 288 64
WIRE 800 96 800 64
WIRE 1040 96 1040 48
WIRE 864 112 864 48
WIRE 864 112 848 112
WIRE -64 144 -64 64
WIRE 640 144 640 64
WIRE 944 160 848 160
WIRE 448 176 448 112
WIRE 288 208 288 176
WIRE 448 208 448 176
WIRE 448 208 288 208
WIRE 512 208 448 208
WIRE 1200 208 1200 48
WIRE 800 224 800 176
WIRE 944 224 944 160
WIRE 1040 224 1040 176
WIRE 1040 224 944 224
WIRE 640 256 640 224
WIRE 640 256 576 256
WIRE 640 272 640 256
WIRE -64 384 -64 224
WIRE 512 384 512 304
WIRE 640 384 640 336
WIRE 800 384 800 304
FLAG -64 384 0
FLAG 160 64 In
FLAG 416 64 S
FLAG 576 64 D
FLAG 448 176 G
FLAG 512 384 0
FLAG 640 384 0
FLAG 800 384 0
FLAG 1200 208 0
FLAG 752 64 OUT
SYMBOL pmos 528 112 M270
SYMATTR InstName M2
SYMATTR Value Si4825DY
SYMBOL voltage -64 128 R0
SYMATTR InstName V3
SYMATTR Value 5
SYMBOL res 272 80 R0
SYMATTR InstName R1
SYMATTR Value 10k
SYMBOL res 624 128 R0
SYMATTR InstName R2
SYMATTR Value 10k
SYMBOL npn 576 208 M0
SYMATTR InstName Q1
SYMBOL diode 656 336 R180
WINDOW 0 24 64 Left 2
WINDOW 3 24 0 Left 2
SYMATTR InstName D1
SYMATTR Value 1N4148
SYMBOL sw 800 80 M0
SYMATTR InstName S1
SYMBOL voltage 1040 192 R180
WINDOW 0 24 96 Left 2
WINDOW 3 24 16 Left 2
WINDOW 123 0 0 Left 0
WINDOW 39 0 0 Left 0
SYMATTR InstName V2
SYMATTR Value PULSE(0 2 1 0 0 1)
SYMBOL res 816 320 R180
WINDOW 0 36 76 Left 2
WINDOW 3 36 40 Left 2
SYMATTR InstName R3
SYMATTR Value 10000
TEXT -96 440 Left 2 !.tran 0 4 0
