Version 4
SHEET 1 1220 724
WIRE 160 64 -64 64
WIRE 288 64 160 64
WIRE 416 64 288 64
WIRE 432 64 416 64
WIRE 576 64 528 64
WIRE 640 64 576 64
WIRE 752 64 640 64
WIRE 1040 64 752 64
WIRE 288 96 288 64
WIRE 1040 112 1040 64
WIRE -64 144 -64 64
WIRE 640 144 640 64
WIRE 448 176 448 112
WIRE 288 208 288 176
WIRE 448 208 448 176
WIRE 448 208 288 208
WIRE 512 208 448 208
WIRE 1040 240 1040 192
WIRE 640 256 640 224
WIRE 640 256 576 256
WIRE 640 272 640 256
WIRE -64 288 -64 224
WIRE -64 384 -64 288
WIRE 512 384 512 304
WIRE 640 384 640 336
WIRE 1040 384 1040 320
FLAG -64 384 0
FLAG 160 64 In
FLAG 416 64 S
FLAG 576 64 D
FLAG 448 176 G
FLAG 512 384 0
FLAG 640 384 0
FLAG 1040 384 0
FLAG 752 64 OUT
FLAG -64 288 A
SYMBOL pmos 528 112 M270
SYMATTR InstName M2
SYMATTR Value Si4825DY
SYMBOL voltage -64 128 R0
SYMATTR InstName V3
SYMATTR Value 5
SYMBOL res 272 80 R0
SYMATTR InstName R1
SYMATTR Value 10k
SYMBOL res 624 128 R0
SYMATTR InstName R2
SYMATTR Value 10k
SYMBOL npn 576 208 M0
SYMATTR InstName Q1
SYMBOL diode 656 336 R180
WINDOW 0 24 64 Left 2
WINDOW 3 24 0 Left 2
SYMATTR InstName D1
SYMATTR Value 1N4148
SYMBOL Misc\\battery 1040 96 R0
SYMATTR InstName V1
SYMATTR Value 3.8V
SYMBOL res 1024 224 R0
SYMATTR InstName R3
SYMATTR Value 1
TEXT -96 440 Left 2 !.tran 0 4 0
